Circuit: * C:\Users\george\Desktop\2.NAND_3\nand3inputs.asc

Instance "m2": Length shorter than recommended for a level 1 MOSFET.
Instance "m2": Width narrower than recommended for a level 1 MOSFET.
Instance "m3": Length shorter than recommended for a level 1 MOSFET.
Instance "m3": Width narrower than recommended for a level 1 MOSFET.
Instance "m1": Length shorter than recommended for a level 1 MOSFET.
Instance "m1": Width narrower than recommended for a level 1 MOSFET.
Instance "m4": Length shorter than recommended for a level 1 MOSFET.
Instance "m4": Width narrower than recommended for a level 1 MOSFET.
Direct Newton iteration for .op point succeeded.

Date: Tue Jun 25 02:28:33 2019
Total elapsed time: 0.681 seconds.

tnom = 27
temp = 27
method = modified trap
totiter = 6966
traniter = 6955
tranpoints = 1420
accept = 1327
rejected = 93
matrix size = 11
fillins = 0
solver = Normal
Matrix Compiler1: 360 bytes object code size  2.3/0.9/[0.5]
Matrix Compiler2: 773 bytes object code size  1.2/1.9/[0.5]


