Circuit: * C:\Users\george\Desktop\5.DELAY_POWER\Draft2.asc

Instance "m2": Length shorter than recommended for a level 1 MOSFET.
Instance "m2": Width narrower than recommended for a level 1 MOSFET.
Instance "m1": Length shorter than recommended for a level 1 MOSFET.
Instance "m1": Width narrower than recommended for a level 1 MOSFET.
Direct Newton iteration for .op point succeeded.

Date: Tue Jun 25 02:27:50 2019
Total elapsed time: 0.430 seconds.

tnom = 27
temp = 27
method = modified trap
totiter = 2130
traniter = 2121
tranpoints = 1061
accept = 1057
rejected = 4
matrix size = 5
fillins = 0
solver = Normal
Matrix Compiler1: 132 bytes object code size  0.3/0.3/[0.2]
Matrix Compiler2: 335 bytes object code size  0.3/0.4/[0.3]


