Circuit: * C:\Users\george\Desktop\3.CMOS_LOGIC\Draft3.asc

Instance "m§pmos": Length shorter than recommended for a level 1 MOSFET.
Instance "m§pmos": Width narrower than recommended for a level 1 MOSFET.
Instance "m9": Length shorter than recommended for a level 1 MOSFET.
Instance "m9": Width narrower than recommended for a level 1 MOSFET.
Instance "m8": Length shorter than recommended for a level 1 MOSFET.
Instance "m8": Width narrower than recommended for a level 1 MOSFET.
Instance "m§g": Length shorter than recommended for a level 1 MOSFET.
Instance "m§g": Width narrower than recommended for a level 1 MOSFET.
Instance "m§a": Length shorter than recommended for a level 1 MOSFET.
Instance "m§a": Width narrower than recommended for a level 1 MOSFET.
Instance "m§d": Length shorter than recommended for a level 1 MOSFET.
Instance "m§d": Width narrower than recommended for a level 1 MOSFET.
Instance "m§b": Length shorter than recommended for a level 1 MOSFET.
Instance "m§b": Width narrower than recommended for a level 1 MOSFET.
Instance "m§f": Length shorter than recommended for a level 1 MOSFET.
Instance "m§f": Width narrower than recommended for a level 1 MOSFET.
Instance "m§e": Length shorter than recommended for a level 1 MOSFET.
Instance "m§e": Width narrower than recommended for a level 1 MOSFET.
Instance "m§c": Length shorter than recommended for a level 1 MOSFET.
Instance "m§c": Width narrower than recommended for a level 1 MOSFET.
Direct Newton iteration for .op point succeeded.

Date: Tue Jun 25 02:28:45 2019
Total elapsed time: 0.670 seconds.

tnom = 27
temp = 27
method = modified trap
totiter = 2100
traniter = 2094
tranpoints = 1048
accept = 1048
rejected = 0
matrix size = 24
fillins = 0
solver = Normal
Matrix Compiler1: 812 bytes object code size  0.7/0.4/[0.4]
Matrix Compiler2: off  [0.5]/0.8/0.5


