Circuit: * C:\Users\george\Desktop\1.PSEUDO_NMOS\pseudo_nmos.asc

WARNING: Node N003 is floating.
WARNING: Node N002 is floating.

Instance "m2": Length shorter than recommended for a level 1 MOSFET.
Instance "m2": Width narrower than recommended for a level 1 MOSFET.
Instance "m1": Length shorter than recommended for a level 1 MOSFET.
Instance "m1": Width narrower than recommended for a level 1 MOSFET.

Date: Tue Jun 25 02:28:21 2019
Total elapsed time: 0.120 seconds.

tnom = 27
temp = 27
method = trap
totiter = 92
traniter = 0
tranpoints = 0
accept = 0
rejected = 0
matrix size = 7
fillins = 0
solver = Normal
Matrix Compiler1: 250 bytes object code size
Matrix Compiler2: 515 bytes object code size

